.model 1N4007 D(IS=7.02767n RS=0.0341512 N=1.80803 EG=1.05743 XTI=5 BV=1100 IBV=5e-08 CJO=1e-11 VJ=0.7 M=0.5 FC=0.5 TT=8u Vp=25m mfg=OnSemi type=silicon Vp=25m)
