.MODEL 1N4001 D (RS=.04 CJO=55PF IS=1.38E-09 N=1.7 VJ=.34V TT=5U M=.38 BV=75V)
.MODEL 1N4002 D (IS=5.86E-06 N=1.70 BV=1.33E+02 IBV=5.00E-07 RS=3.62E-02 CJO=5.21E-11 VJ=.34 M=.38 TT=5.04E-06 Vp=25m)
.MODEL 1N4003 D (IS=5.86E-06 N=1.70 BV=2.66E+02 IBV=5.00E-07 RS=4.22E-02 CJO=5.21E-11 VJ=.34 M=.38 TT=5.04E-06 Vp=25m)
.MODEL 1N4004 D (IS=5.86E-06 N=1.70 BV=5.33E+02 IBV=5.00E-07 RS=4.22E-02 CJO=5.21E-11 VJ=.34 M=.38 TT=5.04E-06 Vp=25m)
.MODEL 1N4005 D (IS=5.86E-06 N=1.70 BV=8.00E+02 IBV=5.00E-07 RS=4.22E-02 CJO=5.21E-11 VJ=.34 M=.38 TT=5.04E-06 Vp=25m)
.MODEL 1N4006 D (IS=5.86E-06 N=1.70 BV=1.07E+03 IBV=5.00E-07 RS=4.22E-02 CJO=3.65E-11 VJ=.2 M=.333 TT=7.20E-06 Vp=25m)
.MODEL 1N4007z D (IS=5.86E-06 N=1.70 BV=1.33E+03 IBV=5.00E-07 RS=4.22E-02 CJO=3.65E-11 VJ=.2 M=.333 TT=7.20E-06 Vp=25m)
.model 1N4007 D (IS=7.02767n RS=0.0341512 N=1.80803 EG=1.05743 XTI=5 BV=1000 IBV=5e-08 CJO=1e-11 VJ=0.7 M=0.5 FC=0.5 TT=1e-07 KF=0 AF=1 Vp=25m mfg=OnSemi type=silicon Vp=25m)