* BZX84 250mW (SOT23)
*
.MODEL _BZX84C2V7 D(IS=3.677f N=1.059 RS=.12 IKF=1 XTI=3 EG=1.11 CJO=312.1p M=.2052 VJ=.3971 FC=.5 BV=2.766 IBV=64.76m TBV1=-.56m TT=57.71n Vpk=2.7 mfg=ACME type=zener)
.MODEL _BZX84C3V0 D(IS=4.311f N=1.057 RS=.12 IKF=1 XTI=3 EG=1.11 CJO=291.5p M=.2719 VJ=.5248 FC=.5 BV=3.066 IBV=64.76m TBV1=-.5m TT=64.92n Vpk=3 mfg=ACME type=zener)
.MODEL _BZX84C3V3 D(IS=1.636f N=1.028 RS=.13 IKF=1 XTI=3 EG=1.11 CJO=283.5p M=.2019 VJ=.3905 FC=.5 BV=3.366 IBV=64.77m TBV1=-.46m TT=57.71n Vpk=3.3 mfg=ACME type=zener)
.MODEL _BZX84C3V6 D(IS=522.2E-18 N=1.004 RS=.13 IKF=1 XTI=3 EG=1.11 CJO=256.6E-12 M=.2332 VJ=.4593 FC=.5 BV=3.666 IBV=64.77E-3 TBV1=-.42E-3 TT=389.5E-9 Vpk=3.6 mfg=ACME type=zener)
.MODEL _BZX84C3V9 D(IS=193.4E-15 N=1.219 RS=.1 IKF=1 XTI=3 EG=1.11 CJO=239.5E-12 M=.3295 VJ=.7686 FC=.5 BV=3.966 IBV=64.74E-3 TBV1=-.4E-3 TT=360.7E-9 Vpk=3.9 mfg=ACME type=zener)
.MODEL _BZX84C4V3 D(IS=187E-15 N=1.218 RS=.09 IKF=1 XTI=3 EG=1.11 CJO=221.2E-12 M=.3317 VJ=.7266 FC=.5 BV=4.367 IBV=69.05E-3 TBV1=-.35E-3 TT=331.8E-9 Vpk=4.3 mfg=ACME type=zener)
.MODEL _BZX84C4V7 D(IS=207.3E-15 N=1.224 RS=.14 IKF=1 XTI=3 EG=1.11 CJO=210.7E-12 M=.2286 VJ=.411 FC=.5 BV=4.771 IBV=81.00E-3 TBV1=-.29E-3 TT=591.5E-9 Vpk=4.7 mfg=ACME type=zener)
.MODEL _BZX84C5V1 D(IS=163.3E-15 N=1.230 RS=.11 IKF=1 XTI=3 EG=1.11 CJO=199.6E-12 M=.3281 VJ=.7908 FC=.5 BV=5.179 IBV=.108 TBV1=-.09E-3 TT=490.5E-9 Vpk=5.1 mfg=ACME type=zener)
.MODEL _BZX84C5V6 D(IS=89.48E-15 N=1.203 RS=.09 IKF=1 XTI=3 EG=1.11 CJO=179.6E-12 M=.3067 VJ=.6563 FC=.5 BV=5.690 IBV=.1621 TBV1=.1E-3 TT=562.7E-9 Vpk=5.6 mfg=ACME type=zener)
.MODEL _BZX84C6V2 D(IS=180.4E-15 N=1.228 RS=.09 IKF=1 XTI=3 EG=1.11 CJO=149.5E-12 M=.3207 VJ=.6676 FC=.5 BV=6.326 IBV=.654 TBV1=.38E-3 TT=418.4E-9 Vpk=6.2 mfg=ACME type=zener)
.MODEL _BZX84C6V8 D(IS=137.8E-15 N=1.225 RS=.13 IKF=1 XTI=3 EG=1.11 CJO=129.3E-12 M=.3277 VJ=.735 FC=.5 BV=6.915 IBV=.4358 TBV1=.47E-3 TT=620.4E-9 Vpk=6.8 mfg=ACME type=zener)
.MODEL _BZX84C7V5 D(IS=398.3E-15 N=1.270 RS=.12 IKF=1 XTI=3 EG=1.11 CJO=111.9E-12 M=.3294 VJ=.6802 FC=.5 BV=7.615 IBV=.4354 TBV1=.56E-3 TT=476.1E-9 Vpk=7.5 mfg=ACME type=zener)
.MODEL _BZX84C8V2 D(IS=390.6E-15 N=1.271 RS=.12 IKF=1 XTI=3 EG=1.11 CJO=96.20E-12 M=.333 VJ=.7508 FC=.5 BV=8.315 IBV=.4354 TBV1=.61E-3 TT=519.4E-9 Vpk=8.2 mfg=ACME type=zener)
.MODEL _BZX84C9V1 D(IS=522.2E-18 N=1.004 RS=.12 IKF=1 XTI=3 EG=1.11 CJO=96.83E-12 M=.3303 VJ=.7662 FC=.5 BV=9.215 IBV=.4354 TBV1=.63E-3 TT=93.78E-9 Vpk=9.1 mfg=ACME type=zener)
.MODEL _BZX84C10 D(IS=1.132E-15 N=1.030 RS=.11 IKF=1 XTI=3 EG=1.11 CJO=90.62E-12 M=.33 VJ=.6975 FC=.5 BV=10.11 IBV=.3255 TBV1=.66E-3 TT=108.2E-9 Vpk=10 mfg=ACME type=zener)
.MODEL _BZX84C11 D(IS=544.3E-18 N=1.011 RS=.14 IKF=1 XTI=3 EG=1.11 CJO=80.82E-12 M=.327 VJ=.7056 FC=.5 BV=11.11 IBV=.3262 TBV1=.68E-3 TT=122.6E-9 Vpk=11 mfg=ACME type=zener)
.MODEL _BZX84C12 D(IS=869.1E-18 N=1.02 RS=.12 IKF=1 XTI=3 EG=1.11 CJO=73.83E-12 M=.3306 VJ=.7651 FC=.5 BV=12.1 IBV=.2602 TBV1=.69E-3 TT=144.3E-9 Vpk=12 mfg=ACME type=zener)
.MODEL _BZX84C13 D(IS=513.2E-18 N=1.001 RS=.1 IKF=1 XTI=3 EG=1.11 CJO=62.95E-12 M=.3341 VJ=.8633 FC=.5 BV=13.1 IBV=.2164 TBV1=.71E-3 TT=173.1E-9 Vpk=13 mfg=ACME type=zener))
.MODEL _BZX84C15 D(IS=1.116E-15 N=1.027 RS=.11 IKF=1 XTI=3 EG=1.11 CJO=56.98E-12 M=.3326 VJ=.803 FC=.5 BV=15.1 IBV=.2165 TBV1=.76E-3 TT=209.2E-9 Vpk=15 mfg=ACME type=zener)
.MODEL _BZX84C16 D(IS=556.3E-18 N=1.013 RS=.12 IKF=1 XTI=3 EG=1.11 CJO=52.99E-12 M=.3286 VJ=.7205 FC=.5 BV=16.09 IBV=.1623 TBV1=.77E-3 TT=187.6E-9 Vpk=16 mfg=ACME type=zener)
.MODEL _BZX84C18 D(IS=723.9E-18 N=1.02 RS=.13 IKF=1 XTI=3 EG=1.11 CJO=44.99E-12 M=.3353 VJ=.828 FC=.5 BV=18.09 IBV=.1442 TBV1=.8E-3 TT=281.3E-9 Vpk=18 mfg=ACME type=zener)

.MODEL _BZX84C20 D(Is=5.721f N=1.107 Rs=199.9m Ikf=4.375 Cjo=13.45p M=300.2m Vj=542.4m Isr=1.73p Nr=4 Bv=20 Ibv=5m tt=182n Nbv=400m Tbv1=790u Ibvl=2p Nbvl=80 Vpk=20 mfg=ACME type=Zener)
.MODEL _BZX84C22 D(Is=7.601f N=1.116 Rs=227.1m Ikf=1.351 Cjo=12.43p M=290.1m Vj=534.3m Isr=1.784p Nr=4 Bv=22 Ibv=5m tt=187n Nbv=400m Tbv1=808u Ibvl=2p Nbvl=80 Vpk=22 mfg=ACME type=Zener)
.MODEL _BZX84C24 D(Is=3.246f N=1.075 Rs=231.8m Ikf=329.1m Cjo=11p M=320.5m Vj=588.4m Isr=1.652p Nr=3.3 Bv=24 Ibv=5m tt=205n Nbv=400m Tbv1=823u Ibvl=2p Nbvl=80 Vpk=24 mfg=ACME type=Zener)
.MODEL _BZX84C27 D(Is=1.359f N=1.036 Rs=293.5m Ikf=139.7m Cjo=10.47p M=291.5m Vj=546.1m Isr=1.789p Nr=3.3 Bv=27 Ibv=2m tt=184n Nbv=400m Tbv1=839u Ibvl=2p Nbvl=80 Vpk=27 mfg=ACME type=Zener)
.MODEL _BZX84C30 D(Is=3.023f N=1.091 Rs=304.1m Ikf=6.364 Cjo=9.311p M=319.7m Vj=583.9m Isr=3.201p Nr=4 Bv=30 Ibv=2m tt=190n Nbv=400m Tbv1=853u Ibvl=2p Nbvl=80 Vpk=30 mfg=ACME type=Zener)
.MODEL _BZX84C33 D(Is=4.337f N=1.065 Rs=276.3m Ikf=113.5m Cjo=8.996p M=290.6m Vj=530.6m Isr=6.346p Nr=4 Bv=33 Ibv=2m tt=170n Nbv=500m Tbv1=865u Ibvl=2p Nbvl=80 Vpk=33 mfg=ACME type=Zener)
.MODEL _BZX84C36 D(Is=933.08E-18 N=972.8m Rs=227.7m Ikf=7.84m Cjo=8.079p M=317.8m Vj=579.6m Isr=3.513p Nr=3.6 Bv=36 Ibv=2m tt=205n Nbv=500m Tbv1=874u Ibvl=2p Nbvl=80 Vpk=36 mfg=ACME type=Zener)