Version 4
SHEET 1 1076 740
WIRE -1696 -192 -1696 -224
WIRE -1488 -192 -1488 -224
WIRE -224 -176 -224 -208
WIRE -1488 -80 -1488 -112
WIRE -224 -80 -224 -96
WIRE -112 -80 -224 -80
WIRE 0 -80 -48 -80
WIRE -1488 -64 -1488 -80
WIRE -224 -64 -224 -80
WIRE -2032 -16 -2032 -64
WIRE -1696 -16 -1696 -112
WIRE -1568 -16 -1696 -16
WIRE -1552 -16 -1568 -16
WIRE -288 -16 -848 -16
WIRE -1696 0 -1696 -16
WIRE -624 16 -624 -64
WIRE -1488 48 -1488 32
WIRE -224 48 -224 32
WIRE -112 48 -224 48
WIRE 0 48 -48 48
WIRE -1488 64 -1488 48
WIRE -1248 64 -1488 64
WIRE -1072 64 -1248 64
WIRE -224 64 -224 48
WIRE -2032 112 -2032 64
WIRE -1696 112 -1696 80
WIRE -1248 160 -1248 128
WIRE -1248 160 -1312 160
WIRE -1072 160 -1072 128
WIRE -848 160 -848 -16
WIRE -848 160 -1072 160
WIRE -528 160 -848 160
WIRE -368 176 -464 176
WIRE -224 176 -224 144
WIRE -1248 192 -1248 160
WIRE -1072 192 -1072 160
WIRE -624 192 -624 96
WIRE -528 192 -624 192
WIRE -848 208 -848 160
WIRE -1248 256 -1488 256
WIRE -1072 256 -1248 256
WIRE -1488 288 -1488 256
WIRE -624 288 -624 192
WIRE -512 288 -624 288
WIRE -368 288 -368 176
WIRE -368 288 -432 288
WIRE -848 304 -848 272
WIRE -1696 336 -1696 304
WIRE -1584 336 -1696 336
WIRE -1552 336 -1584 336
WIRE -1696 368 -1696 336
WIRE -624 400 -624 368
WIRE -1488 416 -1488 384
WIRE -1488 432 -1488 416
WIRE -1696 464 -1696 448
WIRE -1312 464 -1312 160
WIRE -368 464 -368 288
WIRE -368 464 -1312 464
WIRE -1488 560 -1488 512
FLAG -2032 112 0
FLAG -848 304 0
FLAG -1488 -224 Vcc
FLAG -1696 -224 Vcc
FLAG -1488 48 VC1
FLAG -1696 -16 VB1
FLAG -1696 112 0
FLAG -2032 -64 Vcc
FLAG -1488 -80 VE1
FLAG -848 160 Vc
FLAG -1488 560 0
FLAG -1696 464 0
FLAG -1696 224 Vcc
FLAG -1312 160 Vtr2
FLAG -1488 256 VC2
FLAG -1488 416 VE2
FLAG -1584 336 VB2
FLAG -1568 -16 VB1
FLAG -496 144 Vcc
FLAG -496 208 0
FLAG -624 400 0
FLAG -624 -64 Vcc
FLAG -224 176 0
FLAG 0 -80 V180
FLAG 0 48 V0
FLAG -224 -208 Vcc
SYMBOL voltage -2032 -32 R0
WINDOW 123 0 0 Left 0
WINDOW 39 0 0 Left 0
SYMATTR InstName V1
SYMATTR Value 9
SYMBOL pnp -1552 32 M180
SYMATTR InstName Q1
SYMATTR Value 2N3906
SYMBOL res -1504 -208 R0
SYMATTR InstName Ra
SYMATTR Value 1051
SYMBOL polcap -864 208 R0
WINDOW 3 24 56 Left 2
SYMATTR Value 470µ
SYMATTR InstName C
SYMATTR Description Capacitor
SYMATTR Type cap
SYMBOL res -1712 -16 R0
SYMATTR InstName R2
SYMATTR Value 6K8
SYMBOL diode -1264 64 R0
SYMATTR InstName D2
SYMATTR Value 1N4148
SYMBOL diode -1088 64 R0
SYMATTR InstName D3
SYMATTR Value 1N4148
SYMBOL diode -1264 192 R0
SYMATTR InstName D4
SYMATTR Value 1N4148
SYMBOL diode -1088 192 R0
SYMATTR InstName D5
SYMATTR Value 1N4148
SYMBOL npn -1552 288 R0
SYMATTR InstName Q2
SYMATTR Value 2N3904
SYMBOL res -1504 416 R0
SYMATTR InstName Rb
SYMATTR Value 1051
SYMBOL res -1712 208 R0
SYMATTR InstName R3
SYMATTR Value 6K8
SYMBOL res -1712 -208 R0
SYMATTR InstName R1
SYMATTR Value 1K2
SYMBOL res -1712 352 R0
SYMATTR InstName R4
SYMATTR Value 1K2
SYMBOL res -640 0 R0
SYMATTR InstName R5
SYMATTR Value 4K7
SYMBOL res -640 272 R0
SYMATTR InstName R6
SYMATTR Value 4K7
SYMBOL res -416 272 R90
WINDOW 0 0 56 VBottom 2
WINDOW 3 32 56 VTop 2
SYMATTR InstName R7
SYMATTR Value 2K2
SYMBOL OpAmps\\opamp2 -496 112 R0
SYMATTR InstName U2
SYMATTR Value NE5532
SYMBOL npn -288 -64 R0
SYMATTR InstName Q3
SYMATTR Value 2N3904
SYMBOL res -240 48 R0
SYMATTR InstName R9
SYMATTR Value 6K8
SYMBOL res -240 -192 R0
SYMATTR InstName R8
SYMATTR Value 4K7
SYMBOL cap -48 -96 R90
WINDOW 0 0 32 VBottom 2
WINDOW 3 32 32 VTop 2
SYMATTR InstName C2
SYMATTR Value 1µ
SYMBOL cap -48 32 R90
WINDOW 0 0 32 VBottom 2
WINDOW 3 32 32 VTop 2
SYMATTR InstName C1
SYMATTR Value 1µ
TEXT -1368 -168 Left 2 !.tran 10
TEXT -1368 -232 Left 2 !.lib C:\\Users\\afraschetti\\Documents\\LTspiceXVII\\customlib\\1N400x.lib
TEXT -1368 -200 Left 2 !.lib C:\\Users\\afraschetti\\Documents\\LTspiceXVII\\customlib\\NE5532.sub
